Version 4
SHEET 1 880 680
SYMBOL diode 96 32 R0
SYMATTR InstName D1
